<?xml version="1.0" encoding="UTF-8"?>

<!-- generated on 09/26/17 16:38:20 by SUMO netconvert Version 0.31.0
<?xml version="1.0" encoding="UTF-8"?>

<configuration xmlns:xsi="http://www.w3.org/2001/XMLSchema-instance" xsi:noNamespaceSchemaLocation="http://sumo.dlr.de/xsd/netconvertConfiguration.xsd">

    <input>
        <osm-files value="..\Documents\IDP\MMK\scripts\sanitized.osm"/>
    </input>

    <output>
        <output-file value="..\sanitized.net.xml"/>
        <output.street-names value="true"/>
        <output.original-names value="true"/>
    </output>

    <projection>
        <proj.utm value="true"/>
    </projection>

</configuration>
-->

<net version="0.27" xmlns:xsi="http://www.w3.org/2001/XMLSchema-instance" xsi:noNamespaceSchemaLocation="http://sumo.dlr.de/xsd/net_file.xsd">

    <location netOffset="-690379.25,-5335624.42" convBoundary="0.00,0.00,1210.08,1187.84" origBoundary="11.559673,48.145133,11.575961,48.155736" projParameter="+proj=utm +zone=32 +ellps=WGS84 +datum=WGS84 +units=m +no_defs"/>

    <type id="highway.bridleway" priority="1" numLanes="1" speed="2.78" allow="pedestrian" oneway="1" width="2.00"/>
    <type id="highway.bus_guideway" priority="1" numLanes="1" speed="8.33" allow="bus" oneway="1"/>
    <type id="highway.cycleway" priority="1" numLanes="1" speed="5.56" allow="bicycle" oneway="0" width="1.00"/>
    <type id="highway.footway" priority="1" numLanes="1" speed="2.78" allow="pedestrian" oneway="1" width="2.00"/>
    <type id="highway.ford" priority="1" numLanes="1" speed="2.78" allow="army" oneway="0"/>
    <type id="highway.living_street" priority="3" numLanes="1" speed="2.78" disallow="tram rail_urban rail rail_electric ship" oneway="0"/>
    <type id="highway.motorway" priority="13" numLanes="2" speed="44.44" allow="private emergency authority army vip passenger hov taxi bus coach delivery truck trailer motorcycle evehicle custom1 custom2" oneway="1"/>
    <type id="highway.motorway_link" priority="12" numLanes="1" speed="22.22" allow="private emergency authority army vip passenger hov taxi bus coach delivery truck trailer motorcycle evehicle custom1 custom2" oneway="1"/>
    <type id="highway.path" priority="1" numLanes="1" speed="2.78" allow="bicycle pedestrian" oneway="1" width="2.00"/>
    <type id="highway.pedestrian" priority="1" numLanes="1" speed="2.78" allow="pedestrian" oneway="1" width="2.00"/>
    <type id="highway.primary" priority="9" numLanes="2" speed="27.78" disallow="tram rail_urban rail rail_electric ship" oneway="0"/>
    <type id="highway.primary_link" priority="8" numLanes="1" speed="22.22" disallow="tram rail_urban rail rail_electric ship" oneway="0"/>
    <type id="highway.raceway" priority="14" numLanes="2" speed="83.33" allow="vip" oneway="0"/>
    <type id="highway.residential" priority="4" numLanes="1" speed="13.89" disallow="tram rail_urban rail rail_electric ship" oneway="0"/>
    <type id="highway.secondary" priority="7" numLanes="2" speed="27.78" disallow="tram rail_urban rail rail_electric ship" oneway="0"/>
    <type id="highway.secondary_link" priority="6" numLanes="1" speed="22.22" disallow="tram rail_urban rail rail_electric ship" oneway="0"/>
    <type id="highway.service" priority="2" numLanes="1" speed="5.56" allow="delivery bicycle pedestrian" oneway="0"/>
    <type id="highway.services" priority="1" numLanes="1" speed="8.33" disallow="tram rail_urban rail rail_electric ship" oneway="0"/>
    <type id="highway.stairs" priority="1" numLanes="1" speed="1.39" allow="pedestrian" oneway="1" width="2.00"/>
    <type id="highway.step" priority="1" numLanes="1" speed="1.39" allow="pedestrian" oneway="1" width="2.00"/>
    <type id="highway.steps" priority="1" numLanes="1" speed="1.39" allow="pedestrian" oneway="1" width="2.00"/>
    <type id="highway.tertiary" priority="6" numLanes="1" speed="22.22" disallow="tram rail_urban rail rail_electric ship" oneway="0"/>
    <type id="highway.tertiary_link" priority="5" numLanes="1" speed="22.22" disallow="tram rail_urban rail rail_electric ship" oneway="0"/>
    <type id="highway.track" priority="1" numLanes="1" speed="5.56" disallow="tram rail_urban rail rail_electric ship" oneway="0"/>
    <type id="highway.trunk" priority="11" numLanes="2" speed="27.78" disallow="tram rail_urban rail rail_electric bicycle pedestrian ship" oneway="0"/>
    <type id="highway.trunk_link" priority="10" numLanes="1" speed="22.22" disallow="tram rail_urban rail rail_electric bicycle pedestrian ship" oneway="0"/>
    <type id="highway.unclassified" priority="5" numLanes="1" speed="13.89" disallow="tram rail_urban rail rail_electric ship" oneway="0"/>
    <type id="highway.unsurfaced" priority="1" numLanes="1" speed="8.33" disallow="tram rail_urban rail rail_electric ship" oneway="0"/>
    <type id="railway.light_rail" priority="15" numLanes="1" speed="27.78" allow="rail_urban" oneway="1"/>
    <type id="railway.preserved" priority="15" numLanes="1" speed="27.78" allow="rail" oneway="1"/>
    <type id="railway.rail" priority="15" numLanes="1" speed="83.33" allow="rail rail_electric" oneway="1"/>
    <type id="railway.subway" priority="15" numLanes="1" speed="27.78" allow="rail_urban" oneway="1"/>
    <type id="railway.tram" priority="15" numLanes="1" speed="13.89" allow="tram" oneway="1"/>

    <edge id=":1077566470_0" function="internal">
        <lane id=":1077566470_0_0" index="0" disallow="tram rail_urban rail rail_electric ship" speed="13.89" length="4.82" shape="139.86,163.02 140.21,161.57 140.84,160.90 141.75,161.00 142.96,161.88"/>
    </edge>
    <edge id=":11310367_0" function="internal">
        <lane id=":11310367_0_0" index="0" disallow="tram rail_urban rail rail_electric ship" speed="13.89" length="4.82" shape="322.94,78.11 323.24,76.66 323.85,75.97 324.77,76.04 326.00,76.87"/>
    </edge>
    <edge id=":1315348781_0" function="internal">
        <lane id=":1315348781_0_0" index="0" disallow="tram rail_urban rail rail_electric ship" speed="13.89" length="0.30" shape="967.26,413.97 966.98,414.07"/>
        <lane id=":1315348781_0_1" index="1" disallow="tram rail_urban rail rail_electric ship" speed="13.89" length="0.30" shape="966.08,410.88 965.80,410.99"/>
    </edge>
    <edge id=":13888123_0" function="internal">
        <lane id=":13888123_0_0" index="0" disallow="tram rail_urban rail rail_electric ship" speed="13.89" length="7.49" shape="238.79,423.51 238.50,421.44 239.09,419.90 239.69,418.36 239.40,416.28"/>
    </edge>
    <edge id=":13888123_1" function="internal">
        <lane id=":13888123_1_0" index="0" disallow="tram rail_urban rail rail_electric ship" speed="13.89" length="3.24" shape="241.84,422.26 241.90,420.81 243.06,419.46"/>
    </edge>
    <edge id=":13888123_2" function="internal">
        <lane id=":13888123_2_0" index="0" disallow="tram rail_urban rail rail_electric ship" speed="13.89" length="2.82" shape="241.84,422.26 242.14,420.80 242.74,420.11 243.16,420.14"/>
    </edge>
    <edge id=":13888123_9" function="internal">
        <lane id=":13888123_9_0" index="0" speed="13.89" length="7.47" shape="243.06,419.46 243.22,419.28 245.80,417.69 249.65,416.02"/>
    </edge>
    <edge id=":13888123_10" function="internal">
        <lane id=":13888123_10_0" index="0" speed="13.89" length="1.99" shape="243.16,420.14 243.66,420.18 244.90,421.01"/>
    </edge>
    <edge id=":13888123_3" function="internal">
        <lane id=":13888123_3_0" index="0" disallow="tram rail_urban rail rail_electric ship" speed="13.89" length="5.33" shape="245.50,413.78 246.27,415.16 247.22,415.99 248.34,416.27 249.65,416.02"/>
    </edge>
    <edge id=":13888123_4" function="internal">
        <lane id=":13888123_4_0" index="0" disallow="tram rail_urban rail rail_electric ship" speed="13.89" length="7.50" shape="245.50,413.78 245.80,415.85 245.20,417.40 244.61,418.94 244.90,421.01"/>
    </edge>
    <edge id=":13888123_5" function="internal">
        <lane id=":13888123_5_0" index="0" disallow="tram rail_urban rail rail_electric ship" speed="13.89" length="2.82" shape="242.45,415.03 242.15,416.49 241.55,417.18 241.13,417.15"/>
    </edge>
    <edge id=":13888123_11" function="internal">
        <lane id=":13888123_11_0" index="0" speed="13.89" length="1.99" shape="241.13,417.15 240.63,417.12 239.40,416.28"/>
    </edge>
    <edge id=":13888123_6" function="internal">
        <lane id=":13888123_6_0" index="0" disallow="tram rail_urban rail rail_electric ship" speed="13.89" length="7.83" shape="234.62,421.46 237.16,420.30 238.81,419.05 239.55,417.71 239.40,416.28"/>
    </edge>
    <edge id=":13888123_7" function="internal">
        <lane id=":13888123_7_0" index="0" disallow="tram rail_urban rail rail_electric ship" speed="13.89" length="15.99" shape="234.62,421.46 249.65,416.02"/>
    </edge>
    <edge id=":13888123_8" function="internal">
        <lane id=":13888123_8_0" index="0" disallow="tram rail_urban rail rail_electric ship" speed="13.89" length="10.98" shape="234.62,421.46 238.67,420.16 241.73,419.65 243.80,419.94 244.90,421.01"/>
    </edge>
    <edge id=":1680609182_0" function="internal">
        <lane id=":1680609182_0_0" index="0" disallow="tram rail_urban rail rail_electric ship" speed="13.89" length="0.26" shape="505.14,526.05 505.04,525.81"/>
    </edge>
    <edge id=":1680609182_1" function="internal">
        <lane id=":1680609182_1_0" index="0" disallow="tram rail_urban rail rail_electric ship" speed="13.89" length="2.41" shape="505.14,526.05 505.45,524.59 506.07,523.91"/>
    </edge>
    <edge id=":1680609182_4" function="internal">
        <lane id=":1680609182_4_0" index="0" speed="13.89" length="2.41" shape="506.07,523.91 506.98,523.99 508.21,524.84"/>
    </edge>
    <edge id=":1680609182_2" function="internal">
        <lane id=":1680609182_2_0" index="0" disallow="tram rail_urban rail rail_electric ship" speed="13.89" length="0.31" shape="508.09,524.55 508.21,524.84"/>
    </edge>
    <edge id=":1680609182_3" function="internal">
        <lane id=":1680609182_3_0" index="0" disallow="tram rail_urban rail rail_electric ship" speed="13.89" length="2.41" shape="508.09,524.55 507.80,526.01 507.19,526.70"/>
    </edge>
    <edge id=":1680609182_5" function="internal">
        <lane id=":1680609182_5_0" index="0" speed="13.89" length="2.41" shape="507.19,526.70 506.27,526.64 505.04,525.81"/>
    </edge>
    <edge id=":1954309_0" function="internal">
        <lane id=":1954309_0_0" index="0" disallow="tram rail_urban rail rail_electric ship" speed="13.89" length="0.31" shape="912.71,998.03 912.60,997.74"/>
    </edge>
    <edge id=":1954309_1" function="internal">
        <lane id=":1954309_1_0" index="0" disallow="tram rail_urban rail rail_electric ship" speed="13.89" length="2.41" shape="912.71,998.03 913.01,996.57 913.63,995.88"/>
    </edge>
    <edge id=":1954309_4" function="internal">
        <lane id=":1954309_4_0" index="0" speed="13.89" length="2.41" shape="913.63,995.88 914.55,995.96 915.77,996.80"/>
    </edge>
    <edge id=":1954309_2" function="internal">
        <lane id=":1954309_2_0" index="0" disallow="tram rail_urban rail rail_electric ship" speed="13.89" length="0.29" shape="915.66,996.53 915.77,996.80"/>
    </edge>
    <edge id=":1954309_3" function="internal">
        <lane id=":1954309_3_0" index="0" disallow="tram rail_urban rail rail_electric ship" speed="13.89" length="2.41" shape="915.66,996.53 915.35,997.98 914.74,998.67"/>
    </edge>
    <edge id=":1954309_5" function="internal">
        <lane id=":1954309_5_0" index="0" speed="13.89" length="2.41" shape="914.74,998.67 913.82,998.59 912.60,997.74"/>
    </edge>
    <edge id=":1954396_0" function="internal">
        <lane id=":1954396_0_0" index="0" disallow="tram rail_urban rail rail_electric ship" speed="13.89" length="7.09" shape="427.49,619.97 420.88,622.48"/>
        <lane id=":1954396_0_1" index="1" disallow="tram rail_urban rail rail_electric ship" speed="13.89" length="7.09" shape="426.33,616.88 419.70,619.40"/>
    </edge>
    <edge id=":1954396_2" function="internal">
        <lane id=":1954396_2_0" index="0" disallow="tram rail_urban rail rail_electric ship" speed="13.89" length="5.76" shape="426.33,616.88 424.63,617.31 423.25,617.20 422.20,616.56 421.46,615.38"/>
    </edge>
    <edge id=":1954396_3" function="internal">
        <lane id=":1954396_3_0" index="0" disallow="tram rail_urban rail rail_electric ship" speed="13.89" length="7.88" shape="424.53,614.17 424.67,615.60 423.91,616.94 422.25,618.21 419.70,619.40"/>
    </edge>
    <edge id=":1954396_4" function="internal">
        <lane id=":1954396_4_0" index="0" disallow="tram rail_urban rail rail_electric ship" speed="13.89" length="4.82" shape="424.53,614.17 424.22,615.62 423.61,616.31 422.69,616.23 421.46,615.38"/>
    </edge>
    <edge id=":1954400_0" function="internal">
        <lane id=":1954400_0_0" index="0" disallow="tram rail_urban rail rail_electric ship" speed="8.33" length="4.79" shape="384.36,773.09 384.99,774.21 385.84,774.93 386.90,775.25 388.18,775.17"/>
    </edge>
    <edge id=":1954400_1" function="internal">
        <lane id=":1954400_1_0" index="0" disallow="tram rail_urban rail rail_electric ship" speed="8.33" length="4.82" shape="384.36,773.09 384.05,774.54 383.43,775.22 382.51,775.14 381.29,774.29"/>
    </edge>
    <edge id=":1954403_0" function="internal">
        <lane id=":1954403_0_0" index="0" disallow="tram rail_urban rail rail_electric ship" speed="8.33" length="5.00" shape="472.23,743.54 473.42,742.87 474.11,741.98 474.31,740.86 474.00,739.53"/>
    </edge>
    <edge id=":1954403_1" function="internal">
        <lane id=":1954403_1_0" index="0" disallow="tram rail_urban rail rail_electric ship" speed="8.33" length="6.19" shape="472.23,743.54 478.00,741.31"/>
    </edge>
    <edge id=":1954411_0" function="internal">
        <lane id=":1954411_0_0" index="0" disallow="tram rail_urban rail rail_electric ship" speed="11.11" length="5.09" shape="1038.61,749.04 1037.93,747.85 1037.01,747.17 1035.87,746.99 1034.49,747.32"/>
    </edge>
    <edge id=":1954411_1" function="internal">
        <lane id=":1954411_1_0" index="0" disallow="tram rail_urban rail rail_electric ship" speed="13.89" length="9.50" shape="1038.61,749.04 1035.15,740.19"/>
    </edge>
    <edge id=":1954411_2" function="internal">
        <lane id=":1954411_2_0" index="0" disallow="tram rail_urban rail rail_electric ship" speed="13.89" length="2.41" shape="1038.61,749.04 1038.92,747.59 1039.54,746.90"/>
    </edge>
    <edge id=":1954411_9" function="internal">
        <lane id=":1954411_9_0" index="0" speed="13.89" length="2.41" shape="1039.54,746.90 1040.46,746.99 1041.68,747.84"/>
    </edge>
    <edge id=":1954411_3" function="internal">
        <lane id=":1954411_3_0" index="0" disallow="tram rail_urban rail rail_electric ship" speed="13.89" length="9.50" shape="1038.22,738.99 1041.68,747.84"/>
    </edge>
    <edge id=":1954411_4" function="internal">
        <lane id=":1954411_4_0" index="0" disallow="tram rail_urban rail rail_electric ship" speed="11.11" length="5.17" shape="1038.22,738.99 1038.86,741.75 1038.45,744.06"/>
    </edge>
    <edge id=":1954411_5" function="internal">
        <lane id=":1954411_5_0" index="0" disallow="tram rail_urban rail rail_electric ship" speed="13.89" length="2.41" shape="1038.22,738.99 1037.91,740.45 1037.29,741.13"/>
    </edge>
    <edge id=":1954411_10" function="internal">
        <lane id=":1954411_10_0" index="0" speed="11.11" length="5.23" shape="1038.45,744.06 1037.00,745.91 1034.49,747.32"/>
    </edge>
    <edge id=":1954411_11" function="internal">
        <lane id=":1954411_11_0" index="0" speed="13.89" length="2.41" shape="1037.29,741.13 1036.37,741.05 1035.15,740.19"/>
    </edge>
    <edge id=":1954411_6" function="internal">
        <lane id=":1954411_6_0" index="0" disallow="tram rail_urban rail rail_electric ship" speed="11.11" length="5.27" shape="1033.09,744.33 1034.41,743.60 1035.20,742.67 1035.44,741.53 1035.15,740.19"/>
    </edge>
    <edge id=":1954411_7" function="internal">
        <lane id=":1954411_7_0" index="0" disallow="tram rail_urban rail rail_electric ship" speed="11.11" length="10.58" shape="1033.09,744.33 1035.97,743.63 1038.37,743.98 1040.27,745.39 1041.68,747.84"/>
    </edge>
    <edge id=":1954411_8" function="internal">
        <lane id=":1954411_8_0" index="0" disallow="tram rail_urban rail rail_electric ship" speed="8.33" length="4.83" shape="1033.09,744.33 1034.56,744.55 1035.29,745.12 1035.26,746.04 1034.49,747.32"/>
    </edge>
    <edge id=":1954425_0" function="internal">
        <lane id=":1954425_0_0" index="0" disallow="tram rail_urban rail rail_electric ship" speed="13.89" length="4.82" shape="1209.51,586.46 1210.95,586.80 1211.63,587.43 1211.53,588.34 1210.66,589.55"/>
    </edge>
    <edge id=":1955500_0" function="internal">
        <lane id=":1955500_0_0" index="0" disallow="tram rail_urban rail rail_electric ship" speed="8.33" length="4.82" shape="653.00,894.27 651.55,893.96 650.86,893.34 650.94,892.42 651.79,891.20"/>
    </edge>
    <edge id=":1955508_0" function="internal">
        <lane id=":1955508_0_0" index="0" disallow="tram rail_urban rail rail_electric ship" speed="13.89" length="4.82" shape="991.27,1187.24 990.96,1188.69 990.34,1189.38 989.42,1189.30 988.20,1188.45"/>
    </edge>
    <edge id=":20835091_0" function="internal">
        <lane id=":20835091_0_0" index="0" disallow="tram rail_urban rail rail_electric ship" speed="13.89" length="5.06" shape="812.67,744.15 811.98,742.93 811.08,742.22 809.96,742.02 808.62,742.33"/>
    </edge>
    <edge id=":20835091_1" function="internal">
        <lane id=":20835091_1_0" index="0" disallow="tram rail_urban rail rail_electric ship" speed="13.89" length="9.57" shape="812.67,744.15 809.19,735.24"/>
    </edge>
    <edge id=":20835091_2" function="internal">
        <lane id=":20835091_2_0" index="0" disallow="tram rail_urban rail rail_electric ship" speed="13.89" length="5.21" shape="812.67,744.15 812.02,741.37 812.42,739.05"/>
    </edge>
    <edge id=":20835091_3" function="internal">
        <lane id=":20835091_3_0" index="0" disallow="tram rail_urban rail rail_electric ship" speed="13.89" length="2.41" shape="812.67,744.15 812.99,742.70 813.61,742.02"/>
    </edge>
    <edge id=":20835091_16" function="internal">
        <lane id=":20835091_16_0" index="0" speed="13.89" length="5.21" shape="812.42,739.05 813.89,737.22 816.40,735.86"/>
    </edge>
    <edge id=":20835091_17" function="internal">
        <lane id=":20835091_17_0" index="0" speed="13.89" length="2.41" shape="813.61,742.02 814.52,742.10 815.74,742.95"/>
    </edge>
    <edge id=":20835091_4" function="internal">
        <lane id=":20835091_4_0" index="0" disallow="tram rail_urban rail rail_electric ship" speed="13.89" length="5.02" shape="817.54,738.96 816.33,739.61 815.62,740.50 815.43,741.61 815.74,742.95"/>
    </edge>
    <edge id=":20835091_5" function="internal">
        <lane id=":20835091_5_0" index="0" disallow="tram rail_urban rail rail_electric ship" speed="13.89" length="9.54" shape="817.54,738.96 808.62,742.33"/>
    </edge>
    <edge id=":20835091_6" function="internal">
        <lane id=":20835091_6_0" index="0" disallow="tram rail_urban rail rail_electric ship" speed="13.89" length="5.21" shape="817.54,738.96 814.76,739.56 812.44,739.14"/>
    </edge>
    <edge id=":20835091_7" function="internal">
        <lane id=":20835091_7_0" index="0" disallow="tram rail_urban rail rail_electric ship" speed="13.89" length="2.41" shape="817.54,738.96 816.10,738.61 815.42,737.98"/>
    </edge>
    <edge id=":20835091_18" function="internal">
        <lane id=":20835091_18_0" index="0" speed="13.89" length="5.18" shape="812.44,739.14 810.58,737.70 809.19,735.24"/>
    </edge>
    <edge id=":20835091_19" function="internal">
        <lane id=":20835091_19_0" index="0" speed="13.89" length="2.41" shape="815.42,737.98 815.53,737.06 816.40,735.86"/>
    </edge>
    <edge id=":20835091_8" function="internal">
        <lane id=":20835091_8_0" index="0" disallow="tram rail_urban rail rail_electric ship" speed="13.89" length="5.13" shape="812.27,734.04 812.95,735.25 813.87,735.96 815.02,736.16 816.40,735.86"/>
    </edge>
    <edge id=":20835091_9" function="internal">
        <lane id=":20835091_9_0" index="0" disallow="tram rail_urban rail rail_electric ship" speed="13.89" length="9.57" shape="812.27,734.04 815.74,742.95"/>
    </edge>
    <edge id=":20835091_10" function="internal">
        <lane id=":20835091_10_0" index="0" disallow="tram rail_urban rail rail_electric ship" speed="13.89" length="5.28" shape="812.27,734.04 812.91,736.80 812.52,739.10 812.45,739.19"/>
    </edge>
    <edge id=":20835091_11" function="internal">
        <lane id=":20835091_11_0" index="0" disallow="tram rail_urban rail rail_electric ship" speed="13.89" length="2.41" shape="812.27,734.04 811.95,735.49 811.33,736.18"/>
    </edge>
    <edge id=":20835091_20" function="internal">
        <lane id=":20835091_20_0" index="0" speed="13.89" length="5.05" shape="812.45,739.19 811.09,740.94 808.62,742.33"/>
    </edge>
    <edge id=":20835091_21" function="internal">
        <lane id=":20835091_21_0" index="0" speed="13.89" length="2.41" shape="811.33,736.18 810.41,736.09 809.19,735.24"/>
    </edge>
    <edge id=":20835091_12" function="internal">
        <lane id=":20835091_12_0" index="0" disallow="tram rail_urban rail rail_electric ship" speed="13.89" length="5.00" shape="807.43,739.25 808.62,738.58 809.31,737.69 809.50,736.57 809.19,735.24"/>
    </edge>
    <edge id=":20835091_13" function="internal">
        <lane id=":20835091_13_0" index="0" disallow="tram rail_urban rail rail_electric ship" speed="13.89" length="9.60" shape="807.43,739.25 816.40,735.86"/>
    </edge>
    <edge id=":20835091_14" function="internal">
        <lane id=":20835091_14_0" index="0" disallow="tram rail_urban rail rail_electric ship" speed="13.89" length="5.32" shape="807.43,739.25 810.19,738.61 812.49,739.02 812.61,739.11"/>
    </edge>
    <edge id=":20835091_15" function="internal">
        <lane id=":20835091_15_0" index="0" disallow="tram rail_urban rail rail_electric ship" speed="13.89" length="2.41" shape="807.43,739.25 808.88,739.57 809.56,740.19"/>
    </edge>
    <edge id=":20835091_22" function="internal">
        <lane id=":20835091_22_0" index="0" speed="13.89" length="5.06" shape="812.61,739.11 814.34,740.47 815.74,742.95"/>
    </edge>
    <edge id=":20835091_23" function="internal">
        <lane id=":20835091_23_0" index="0" speed="13.89" length="2.41" shape="809.56,740.19 809.47,741.11 808.62,742.33"/>
    </edge>
    <edge id=":21457467_0" function="internal">
        <lane id=":21457467_0_0" index="0" disallow="tram rail_urban rail rail_electric ship" speed="13.89" length="5.00" shape="373.83,495.16 373.15,493.97 372.26,493.28 371.14,493.10 369.81,493.41"/>
    </edge>
    <edge id=":21457467_1" function="internal">
        <lane id=":21457467_1_0" index="0" disallow="tram rail_urban rail rail_electric ship" speed="13.89" length="3.09" shape="373.83,495.16 373.44,493.07 373.73,492.15"/>
    </edge>
    <edge id=":21457467_2" function="internal">
        <lane id=":21457467_2_0" index="0" disallow="tram rail_urban rail rail_electric ship" speed="13.89" length="2.20" shape="373.83,495.16 374.15,493.70 374.62,493.17"/>
    </edge>
    <edge id=":21457467_6" function="internal">
        <lane id=":21457467_6_0" index="0" speed="13.89" length="5.95" shape="373.73,492.15 374.01,491.25 375.55,489.70 378.06,488.41"/>
    </edge>
    <edge id=":21457467_7" function="internal">
        <lane id=":21457467_7_0" index="0" speed="13.89" length="2.62" shape="374.62,493.17 374.76,493.02 375.68,493.10 376.90,493.94"/>
    </edge>
    <edge id=":21457467_3" function="internal">
        <lane id=":21457467_3_0" index="0" disallow="tram rail_urban rail rail_electric ship" speed="13.89" length="9.71" shape="368.59,490.35 371.33,489.54 373.32,489.37 375.31,489.20 378.06,488.41"/>
    </edge>
    <edge id=":21457467_4" function="internal">
        <lane id=":21457467_4_0" index="0" disallow="tram rail_urban rail rail_electric ship" speed="13.89" length="10.33" shape="368.59,490.35 371.34,489.69 373.65,490.07 375.50,491.49 376.90,493.94"/>
    </edge>
    <edge id=":21457467_5" function="internal">
        <lane id=":21457467_5_0" index="0" disallow="tram rail_urban rail rail_electric ship" speed="13.89" length="2.69" shape="368.59,490.35 370.04,490.66 370.73,491.27 370.71,491.56"/>
    </edge>
    <edge id=":21457467_8" function="internal">
        <lane id=":21457467_8_0" index="0" speed="13.89" length="2.13" shape="370.71,491.56 370.65,492.19 369.81,493.41"/>
    </edge>
    <edge id=":21457468_0" function="internal">
        <lane id=":21457468_0_0" index="0" disallow="tram rail_urban rail rail_electric ship" speed="13.89" length="6.19" shape="475.39,454.08 473.04,448.36"/>
    </edge>
    <edge id=":21457468_1" function="internal">
        <lane id=":21457468_1_0" index="0" disallow="tram rail_urban rail rail_electric ship" speed="13.89" length="2.41" shape="475.39,454.08 475.68,452.63 476.28,451.93"/>
    </edge>
    <edge id=":21457468_6" function="internal">
        <lane id=":21457468_6_0" index="0" speed="13.89" length="2.41" shape="476.28,451.93 477.20,452.00 478.44,452.82"/>
    </edge>
    <edge id=":21457468_2" function="internal">
        <lane id=":21457468_2_0" index="0" disallow="tram rail_urban rail rail_electric ship" speed="13.89" length="6.17" shape="476.10,447.12 478.44,452.82"/>
    </edge>
    <edge id=":21457468_3" function="internal">
        <lane id=":21457468_3_0" index="0" disallow="tram rail_urban rail rail_electric ship" speed="13.89" length="2.41" shape="476.10,447.12 475.80,448.57 475.19,449.27"/>
    </edge>
    <edge id=":21457468_7" function="internal">
        <lane id=":21457468_7_0" index="0" speed="13.89" length="2.41" shape="475.19,449.27 474.27,449.19 473.04,448.36"/>
    </edge>
    <edge id=":21457468_4" function="internal">
        <lane id=":21457468_4_0" index="0" disallow="tram rail_urban rail rail_electric ship" speed="13.89" length="5.02" shape="471.30,452.38 472.50,451.71 473.19,450.81 473.37,449.69 473.04,448.36"/>
    </edge>
    <edge id=":21457468_5" function="internal">
        <lane id=":21457468_5_0" index="0" disallow="tram rail_urban rail rail_electric ship" speed="13.89" length="7.84" shape="471.30,452.38 473.99,451.54 476.08,451.33 477.56,451.76 478.44,452.82"/>
    </edge>
    <edge id=":21457469_0" function="internal">
        <lane id=":21457469_0_0" index="0" disallow="tram rail_urban rail rail_electric ship" speed="13.89" length="9.62" shape="284.07,530.64 280.57,521.69"/>
    </edge>
    <edge id=":21457469_1" function="internal">
        <lane id=":21457469_1_0" index="0" disallow="tram rail_urban rail rail_electric ship" speed="13.89" length="5.35" shape="284.07,530.64 283.39,527.88 283.76,525.57 283.86,525.44"/>
    </edge>
    <edge id=":21457469_2" function="internal">
        <lane id=":21457469_2_0" index="0" disallow="tram rail_urban rail rail_electric ship" speed="13.89" length="2.41" shape="284.07,530.64 284.37,529.19 284.98,528.50"/>
    </edge>
    <edge id=":21457469_9" function="internal">
        <lane id=":21457469_9_0" index="0" speed="13.89" length="5.03" shape="283.86,525.44 285.18,523.71 287.66,522.30"/>
    </edge>
    <edge id=":21457469_10" function="internal">
        <lane id=":21457469_10_0" index="0" speed="13.89" length="2.41" shape="284.98,528.50 285.90,528.57 287.13,529.40"/>
    </edge>
    <edge id=":21457469_3" function="internal">
        <lane id=":21457469_3_0" index="0" disallow="tram rail_urban rail rail_electric ship" speed="13.89" length="5.03" shape="288.88,525.36 287.67,526.05 286.98,526.95 286.80,528.07 287.13,529.40"/>
    </edge>
    <edge id=":21457469_4" function="internal">
        <lane id=":21457469_4_0" index="0" disallow="tram rail_urban rail rail_electric ship" speed="13.89" length="10.40" shape="288.88,525.36 286.10,526.03 283.79,525.64 281.94,524.19 280.57,521.69"/>
    </edge>
    <edge id=":21457469_5" function="internal">
        <lane id=":21457469_5_0" index="0" disallow="tram rail_urban rail rail_electric ship" speed="13.89" length="4.82" shape="288.88,525.36 287.42,525.05 286.74,524.44 286.82,523.52 287.66,522.30"/>
    </edge>
    <edge id=":21457469_6" function="internal">
        <lane id=":21457469_6_0" index="0" disallow="tram rail_urban rail rail_electric ship" speed="13.89" length="5.02" shape="283.65,520.52 284.32,521.73 285.21,522.43 286.32,522.62 287.66,522.30"/>
    </edge>
    <edge id=":21457469_7" function="internal">
        <lane id=":21457469_7_0" index="0" disallow="tram rail_urban rail rail_electric ship" speed="13.89" length="9.54" shape="283.65,520.52 287.13,529.40"/>
    </edge>
    <edge id=":21457469_8" function="internal">
        <lane id=":21457469_8_0" index="0" disallow="tram rail_urban rail rail_electric ship" speed="13.89" length="2.41" shape="283.65,520.52 283.32,521.97 282.69,522.65"/>
    </edge>
    <edge id=":21457469_11" function="internal">
        <lane id=":21457469_11_0" index="0" speed="13.89" length="2.41" shape="282.69,522.65 281.78,522.55 280.57,521.69"/>
    </edge>
    <edge id=":21457470_0" function="internal">
        <lane id=":21457470_0_0" index="0" disallow="tram rail_urban rail rail_electric ship" speed="11.11" length="3.78" shape="430.16,622.29 429.58,621.05 428.98,620.24 428.34,619.86 427.68,619.90"/>
    </edge>
    <edge id=":21457470_1" function="internal">
        <lane id=":21457470_1_0" index="0" disallow="tram rail_urban rail rail_electric ship" speed="13.89" length="4.55" shape="431.94,618.28 427.68,619.90"/>
        <lane id=":21457470_1_1" index="1" disallow="tram rail_urban rail rail_electric ship" speed="13.89" length="4.55" shape="430.77,615.20 426.52,616.81"/>
    </edge>
    <edge id=":2269419707_0" function="internal">